<routes xmlns:xsi="http://www.w3.org/2001/XMLSchema-instance">
    <child attribute_name="attribute_value">child text</child>
</routes>