<?xml version="1.0" encoding="UTF-8"?>

<!-- generated on 2024-03-18 13:02:29 by Eclipse SUMO sumo Version 1.17.0
-->

<configuration xmlns:xsi="http://www.w3.org/2001/XMLSchema-instance" xsi:noNamespaceSchemaLocation="http://sumo.dlr.de/xsd/sumoConfiguration.xsd">
    <input>
        <net-file value="test.net.xml"/>
        <route-files value="test.rou.xml,person_flow.xml,routes_and_busses.xml" />
        <additional-files value="bus_stops.xml"/>
    </input>

</configuration>
