<?xml version="1.0" encoding="UTF-8"?>

<!-- generated on 2024-03-18 11:32:45 by Eclipse SUMO netedit Version 1.19.0
-->

<routes xmlns:xsi="http://www.w3.org/2001/XMLSchema-instance" xsi:noNamespaceSchemaLocation="http://sumo.dlr.de/xsd/routes_file.xsd">
    <!-- VTypes -->
    <vType id="DEFAULT_VEHTYPE" length="7.00" vClass="bus"/>
    <vType id="minibus" length="7.00" maxSpeed="13.90" desiredMaxSpeed="13.90" vClass="bus" personCapacity="24"/>
    <vType id="t_0" vClass="pedestrian" color="green"/>
    <!-- Routes -->
    <route id="r_0" edges="-overlap -R2 -R1 -R0" color="yellow" cycleTime="300.00" repeat="10">
        <stop busStop="bs_3" duration="5.00"/>
        <stop busStop="bs_2" duration="5.00"/>
        <stop busStop="bs_1" duration="5.00"/>
        <stop busStop="bs_0" duration="5.00"/>
    </route>
    <route id="r_1" edges="-overlap -L3 -L2 -L1 -L0" color="blue" cycleTime="300.00" repeat="10">
        <stop busStop="bs_3" duration="5.00"/>
        <stop busStop="bs_7" duration="5.00"/>
        <stop busStop="bs_6" duration="5.00"/>
        <stop busStop="bs_5" duration="5.00"/>
        <stop busStop="bs_4" duration="5.00"/>
    </route>
    <!-- Vehicles, persons and containers (sorted by depart) -->
    <!-- <person depart="0" id="p12" type="t_0">
        <walk from="-overlap" to="overlap" duration="100"/>

    </person> -->

    

    <vehicle id="bus1" type="minibus" depart="0" color="1,1,0" route="r_0">
    </vehicle>
    <vehicle id="bus2" type="minibus" depart="0" color="1,1,0" route="r_0">
    </vehicle>
    <vehicle id="bus3" type="minibus" depart="0" color="1,1,0" route="r_0">
    </vehicle>
    <vehicle id="bus4" type="minibus" depart="0" color="1,1,0" route="r_0">
    </vehicle>
    <vehicle id="bus5" type="minibus" depart="0" color="1,1,0" route="r_0">
    </vehicle>
    
    <!-- <flow id="f_0" type="minibus" begin="0.00" route="r_1" end="3600.00" vehsPerHour="50"/>
    <flow id="f_1" type="minibus" begin="0.00" route="r_0" end="3600.00" vehsPerHour="50"/> -->
</routes>
