<?xml version="1.0" encoding="UTF-8"?>

<!-- generated on 2024-03-20 13:41:50 by Eclipse SUMO netedit Version 1.17.0
<configuration xmlns:xsi="http://www.w3.org/2001/XMLSchema-instance" xsi:noNamespaceSchemaLocation="http://sumo.dlr.de/xsd/netconvertConfiguration.xsd">

    <input>
        <sumocfg-file value="C:\Users\madsl\OneDrive - Aalborg Universitet\something on skrivebord\test123\test.sumocfg"/>
        <additional-files value="C:\Users\madsl\OneDrive - Aalborg Universitet\something on skrivebord\test123\bus_stops.xml"/>
        <route-files value="C:\Users\madsl\OneDrive - Aalborg Universitet\something on skrivebord\test123\test.rou.xml"/>
        <sumo-net-file value="C:\Users\madsl\OneDrive - Aalborg Universitet\something on skrivebord\test123\test.net.xml"/>
    </input>

    <output>
        <output-file value="C:\Users\madsl\OneDrive - Aalborg Universitet\something on skrivebord\test123\test.net.xml"/>
    </output>

    <processing>
        <geometry.min-radius.fix.railways value="false"/>
        <geometry.max-grade.fix value="false"/>
        <offset.disable-normalization value="true"/>
        <lefthand value="0"/>
    </processing>

    <junctions>
        <no-internal-links value="false"/>
        <no-turnarounds value="true"/>
        <junctions.corner-detail value="5"/>
        <junctions.limit-turn-speed value="5.50"/>
        <rectangular-lane-cut value="0"/>
    </junctions>

    <pedestrian>
        <walkingareas value="0"/>
    </pedestrian>

</configuration>
-->

<net version="1.16" junctionCornerDetail="5" limitTurnSpeed="5.50" xmlns:xsi="http://www.w3.org/2001/XMLSchema-instance" xsi:noNamespaceSchemaLocation="http://sumo.dlr.de/xsd/net_file.xsd">

    <location netOffset="0.00,0.00" convBoundary="-1690.53,-392.63,1151.24,640.19" origBoundary="-10000000000.00,-10000000000.00,10000000000.00,10000000000.00" projParameter="!"/>

    <edge id=":J1_0" function="internal">
        <lane id=":J1_0_0" index="0" disallow="pedestrian" speed="13.89" length="11.40" shape="106.20,345.07 102.82,344.97 100.49,345.07 98.22,345.55 95.01,346.58"/>
    </edge>
    <edge id=":J1_1" function="internal">
        <lane id=":J1_1_0" index="0" disallow="pedestrian" speed="7.94" length="13.07" shape="106.20,345.07 102.71,344.46 100.16,342.90 98.54,340.38 97.86,336.90"/>
    </edge>
    <edge id=":J1_2" function="internal">
        <lane id=":J1_2_0" index="0" disallow="pedestrian" speed="6.43" length="8.22" shape="101.06,336.73 101.48,338.92 102.50,340.50 104.11,341.49 106.30,341.87"/>
    </edge>
    <edge id=":J1_3" function="internal">
        <lane id=":J1_3_0" index="0" disallow="pedestrian" speed="8.43" length="12.52" shape="101.06,336.73 100.83,340.22 99.75,343.02 97.81,345.14 95.01,346.58"/>
    </edge>
    <edge id=":J1_4" function="internal">
        <lane id=":J1_4_0" index="0" disallow="pedestrian" speed="6.99" length="8.34" shape="93.98,343.56 95.78,342.61 97.03,341.18 97.72,339.28 97.86,336.90"/>
    </edge>
    <edge id=":J1_5" function="internal">
        <lane id=":J1_5_0" index="0" disallow="pedestrian" speed="13.89" length="12.56" shape="93.98,343.56 97.51,342.42 100.02,341.88 102.58,341.77 106.30,341.87"/>
    </edge>
    <edge id=":J1_c0" function="crossing" crossingEdges="-overlap overlap">
        <lane id=":J1_c0_0" index="0" allow="pedestrian" speed="2.78" length="6.40" width="4.00" shape="96.37,338.98 102.76,338.65"/>
    </edge>
    <edge id=":J1_w0" function="walkingarea">
        <lane id=":J1_w0_0" index="0" allow="pedestrian" speed="2.78" length="10.35" width="2.00" shape="95.53,348.10 96.18,349.99 106.08,348.66 106.15,346.67 103.85,346.59 102.14,346.58 100.73,346.67 99.35,346.92 97.70,347.38"/>
    </edge>
    <edge id=":J1_w1" function="walkingarea">
        <lane id=":J1_w1_0" index="0" allow="pedestrian" speed="2.78" length="3.24" width="4.00" shape="106.35,340.27 106.42,338.27 104.65,336.54 102.66,336.65 102.81,337.72 103.15,338.61 103.67,339.31 104.38,339.82 105.27,340.14"/>
    </edge>
    <edge id=":J1_w2" function="walkingarea">
        <lane id=":J1_w2_0" index="0" allow="pedestrian" speed="2.78" length="3.56" width="4.00" shape="96.27,336.98 94.27,337.09 92.82,340.15 93.46,342.04 94.38,341.62 95.11,341.02 95.67,340.26 96.05,339.34 96.25,338.24"/>
    </edge>
    <edge id=":J2_0" function="internal">
        <lane id=":J2_0_0" index="0" disallow="pedestrian" speed="7.10" length="11.50" shape="1152.65,371.44 1152.31,374.60 1151.02,376.82 1148.80,378.11 1145.64,378.46"/>
    </edge>
    <edge id=":J2_1" function="internal">
        <lane id=":J2_1_0" index="0" disallow="pedestrian" speed="5.36" length="6.09" shape="1145.74,375.26 1147.41,375.08 1148.59,374.39 1149.27,373.22 1149.45,371.54"/>
    </edge>
    <edge id=":J2_w0" function="walkingarea">
        <lane id=":J2_w0_0" index="0" allow="pedestrian" speed="2.78" length="13.72" width="2.00" shape="1145.59,380.06 1145.52,382.06 1148.97,381.87 1151.73,381.07 1153.83,379.62 1155.27,377.53 1156.07,374.76 1156.25,371.31 1154.25,371.38 1154.09,374.11 1153.42,376.33 1152.24,378.03 1150.53,379.22 1148.32,379.90"/>
    </edge>
    <edge id=":J2_w1" function="walkingarea">
        <lane id=":J2_w1_0" index="0" allow="pedestrian" speed="2.78" length="1.46" width="2.00" shape="1147.85,371.60 1145.86,371.66 1145.79,373.66 1146.44,373.62 1146.97,373.46 1147.37,373.18 1147.66,372.78 1147.82,372.25"/>
    </edge>
    <edge id=":J3_0" function="internal">
        <lane id=":J3_0_0" index="0" disallow="pedestrian" speed="5.37" length="5.72" shape="1123.91,-385.72 1123.64,-387.26 1122.94,-388.35 1121.82,-389.00 1120.27,-389.20"/>
    </edge>
    <edge id=":J3_1" function="internal">
        <lane id=":J3_1_0" index="0" disallow="pedestrian" speed="7.11" length="10.81" shape="1120.22,-392.40 1123.15,-392.02 1125.28,-390.80 1126.60,-388.74 1127.11,-385.83"/>
    </edge>
    <edge id=":J3_w0" function="walkingarea">
        <lane id=":J3_w0_0" index="0" allow="pedestrian" speed="2.78" length="1.40" width="2.00" shape="1120.29,-387.60 1120.31,-385.60 1122.31,-385.67 1122.24,-386.27 1122.06,-386.75 1121.77,-387.13 1121.38,-387.40 1120.89,-387.55"/>
    </edge>
    <edge id=":J3_w1" function="walkingarea">
        <lane id=":J3_w1_0" index="0" allow="pedestrian" speed="2.78" length="13.16" width="2.00" shape="1128.71,-385.88 1130.71,-385.95 1130.35,-389.23 1129.49,-391.81 1128.08,-393.74 1126.08,-395.06 1123.46,-395.80 1120.17,-396.00 1120.20,-394.00 1122.72,-393.81 1124.80,-393.15 1126.44,-392.03 1127.64,-390.44 1128.40,-388.39"/>
    </edge>
    <edge id=":J4_0" function="internal">
        <lane id=":J4_0_0" index="0" disallow="pedestrian" speed="6.74" length="9.26" shape="60.79,-368.72 60.32,-371.31 59.22,-373.16 57.48,-374.29 55.11,-374.70"/>
    </edge>
    <edge id=":J4_1" function="internal">
        <lane id=":J4_1_0" index="0" disallow="pedestrian" speed="7.97" length="14.47" shape="60.79,-368.72 61.15,-372.69 62.70,-375.54 65.45,-377.28 69.38,-377.90"/>
    </edge>
    <edge id=":J4_2" function="internal">
        <lane id=":J4_2_0" index="0" disallow="pedestrian" speed="6.46" length="9.16" shape="69.43,-374.70 66.93,-374.31 65.20,-373.21 64.21,-371.40 63.99,-368.89"/>
    </edge>
    <edge id=":J4_3" function="internal">
        <lane id=":J4_3_0" index="0" disallow="pedestrian" speed="13.89" length="14.31" shape="69.43,-374.70 55.11,-374.70"/>
    </edge>
    <edge id=":J4_4" function="internal">
        <lane id=":J4_4_0" index="0" disallow="pedestrian" speed="13.89" length="14.23" shape="55.16,-377.90 69.38,-377.90"/>
    </edge>
    <edge id=":J4_5" function="internal">
        <lane id=":J4_5_0" index="0" disallow="pedestrian" speed="8.19" length="14.18" shape="55.16,-377.90 58.84,-377.29 61.55,-375.59 63.26,-372.79 63.99,-368.89"/>
    </edge>
    <edge id=":J4_c0" function="crossing" crossingEdges="overlap -overlap">
        <lane id=":J4_c0_0" index="0" allow="pedestrian" speed="2.78" length="6.40" width="4.00" shape="65.48,-370.97 59.09,-370.63"/>
    </edge>
    <edge id=":J4_w0" function="walkingarea">
        <lane id=":J4_w0_0" index="0" allow="pedestrian" speed="2.78" length="3.73" width="4.00" shape="55.09,-373.10 55.06,-371.10 57.20,-368.53 59.19,-368.64 59.01,-369.98 58.63,-371.09 58.05,-371.95 57.27,-372.58 56.28,-372.96"/>
    </edge>
    <edge id=":J4_w1" function="walkingarea">
        <lane id=":J4_w1_0" index="0" allow="pedestrian" speed="2.78" length="3.53" width="4.00" shape="65.58,-368.97 67.58,-369.08 69.48,-371.10 69.45,-373.10 68.21,-372.97 67.21,-372.62 66.44,-372.04 65.92,-371.24 65.63,-370.22"/>
    </edge>
    <edge id=":J4_w2" function="walkingarea">
        <lane id=":J4_w2_0" index="0" allow="pedestrian" speed="2.78" length="14.15" width="2.00" shape="69.36,-379.50 69.33,-381.50 55.21,-381.49 55.18,-379.49"/>
    </edge>
    <edge id=":J5_0" function="internal">
        <lane id=":J5_0_0" index="0" disallow="pedestrian" speed="8.11" length="4.73" shape="-767.81,641.10 -769.13,641.52 -770.10,641.65 -771.07,641.49 -772.38,641.04"/>
    </edge>
    <edge id=":J5_1" function="internal">
        <lane id=":J5_1_0" index="0" disallow="pedestrian" speed="6.07" length="2.51" shape="-771.26,638.04 -770.56,638.28 -770.05,638.36 -769.54,638.30 -768.84,638.08"/>
    </edge>
    <edge id=":J5_w0" function="walkingarea">
        <lane id=":J5_w0_0" index="0" allow="pedestrian" speed="2.78" length="6.32" width="2.00" shape="-772.94,642.54 -773.64,644.41 -772.21,644.92 -771.10,645.23 -770.15,645.34 -769.20,645.26 -768.08,644.98 -766.64,644.51 -767.29,642.62 -768.45,643.00 -769.35,643.22 -770.12,643.29 -770.89,643.20 -771.79,642.95"/>
    </edge>
    <edge id=":J5_w1" function="walkingarea">
        <lane id=":J5_w1_0" index="0" allow="pedestrian" speed="2.78" length="0.67" width="2.00" shape="-769.36,636.56 -770.00,634.67 -770.70,636.54 -770.43,636.64 -770.21,636.70 -770.03,636.72 -769.85,636.71 -769.63,636.65"/>
    </edge>
    <edge id=":J7_0" function="internal">
        <lane id=":J7_0_0" index="0" disallow="pedestrian" speed="7.14" length="13.90" shape="-1684.26,300.80 -1687.79,298.88 -1689.44,296.46 -1689.22,293.53 -1687.13,290.10"/>
    </edge>
    <edge id=":J7_1" function="internal">
        <lane id=":J7_1_0" index="0" disallow="pedestrian" speed="5.39" length="7.36" shape="-1684.66,292.14 -1685.77,293.95 -1685.89,295.50 -1685.01,296.78 -1683.14,297.80"/>
    </edge>
    <edge id=":J7_w0" function="walkingarea">
        <lane id=":J7_w0_0" index="0" allow="pedestrian" speed="2.78" length="15.31" width="2.00" shape="-1688.37,289.09 -1689.91,287.82 -1692.01,291.09 -1692.93,294.30 -1692.71,297.33 -1691.38,300.07 -1688.97,302.39 -1685.52,304.17 -1684.82,302.30 -1687.98,300.79 -1690.12,299.00 -1691.22,296.94 -1691.30,294.60 -1690.35,291.98"/>
    </edge>
    <edge id=":J7_w1" function="walkingarea">
        <lane id=":J7_w1_0" index="0" allow="pedestrian" speed="2.78" length="1.63" width="2.00" shape="-1682.58,296.30 -1681.88,294.43 -1683.43,293.16 -1683.90,293.84 -1684.12,294.47 -1684.11,295.02 -1683.84,295.52 -1683.33,295.94"/>
    </edge>
    <edge id=":J8_0" function="internal">
        <lane id=":J8_0_0" index="0" disallow="pedestrian" speed="5.69" length="3.23" shape="-1120.55,-391.00 -1121.38,-390.92 -1122.13,-390.68 -1122.79,-390.27 -1123.38,-389.68"/>
    </edge>
    <edge id=":J8_1" function="internal">
        <lane id=":J8_1_0" index="0" disallow="pedestrian" speed="7.57" length="6.10" shape="-1125.85,-391.72 -1124.74,-392.82 -1123.48,-393.60 -1122.07,-394.06 -1120.51,-394.20"/>
    </edge>
    <edge id=":J8_w0" function="walkingarea">
        <lane id=":J8_w0_0" index="0" allow="pedestrian" speed="2.78" length="0.87" width="2.00" shape="-1122.15,-388.67 -1120.60,-387.40 -1120.58,-389.40 -1120.89,-389.38 -1121.18,-389.32 -1121.45,-389.22 -1121.70,-389.08 -1121.93,-388.89"/>
    </edge>
    <edge id=":J8_w1" function="walkingarea">
        <lane id=":J8_w1_0" index="0" allow="pedestrian" speed="2.78" length="8.14" width="2.00" shape="-1120.49,-395.80 -1120.46,-397.79 -1122.43,-397.78 -1123.94,-397.61 -1125.16,-397.23 -1126.24,-396.55 -1127.35,-395.50 -1128.63,-394.01 -1127.09,-392.73 -1126.19,-393.69 -1125.21,-394.46 -1124.16,-395.06 -1123.01,-395.48 -1121.79,-395.73"/>
    </edge>

    <edge id="-L0" from="J5" to="J1" priority="-1">
        <lane id="-L0_0" index="0" allow="pedestrian" speed="13.89" length="911.70" width="2.00" shape="-769.68,635.62 93.14,341.10"/>
        <lane id="-L0_1" index="1" disallow="pedestrian" speed="13.89" length="911.70" shape="-768.84,638.08 93.98,343.56"/>
    </edge>
    <edge id="-L1" from="J7" to="J5" priority="-1">
        <lane id="-L1_0" index="0" allow="pedestrian" speed="13.89" length="973.29" width="2.00" shape="-1682.23,295.36 -770.35,635.61"/>
        <lane id="-L1_1" index="1" disallow="pedestrian" speed="13.89" length="973.29" shape="-1683.14,297.80 -771.26,638.04"/>
    </edge>
    <edge id="-L2" from="J8" to="J7" priority="-1">
        <lane id="-L2_0" index="0" allow="pedestrian" speed="13.89" length="883.13" width="2.00" shape="-1121.38,-388.03 -1682.65,293.79"/>
        <lane id="-L2_1" index="1" disallow="pedestrian" speed="13.89" length="883.13" shape="-1123.38,-389.68 -1684.66,292.14"/>
    </edge>
    <edge id="-L3" from="J4" to="J8" priority="-1">
        <lane id="-L3_0" index="0" allow="pedestrian" speed="13.89" length="1175.78" width="2.00" shape="55.08,-372.10 -1120.59,-388.40"/>
        <lane id="-L3_1" index="1" disallow="pedestrian" speed="13.89" length="1175.78" shape="55.11,-374.70 -1120.55,-391.00"/>
    </edge>
    <edge id="-R0" from="J2" to="J1" priority="-1">
        <lane id="-R0_0" index="0" allow="pedestrian" speed="13.89" length="1039.98" width="2.00" shape="1145.55,381.06 106.11,347.67"/>
        <lane id="-R0_1" index="1" disallow="pedestrian" speed="13.89" length="1039.98" shape="1145.64,378.46 106.20,345.07"/>
    </edge>
    <edge id="-R1" from="J3" to="J2" priority="-1">
        <lane id="-R1_0" index="0" allow="pedestrian" speed="13.89" length="757.70" width="2.00" shape="1129.71,-385.92 1155.25,371.35"/>
        <lane id="-R1_1" index="1" disallow="pedestrian" speed="13.89" length="757.70" shape="1127.11,-385.83 1152.65,371.44"/>
    </edge>
    <edge id="-R2" from="J4" to="J3" priority="-1">
        <lane id="-R2_0" index="0" allow="pedestrian" speed="13.89" length="1050.94" width="2.00" shape="69.35,-380.50 1120.19,-395.00"/>
        <lane id="-R2_1" index="1" disallow="pedestrian" speed="13.89" length="1050.94" shape="69.38,-377.90 1120.22,-392.40"/>
    </edge>
    <edge id="-overlap" from="J1" to="J4" priority="-1">
        <lane id="-overlap_0" index="0" allow="pedestrian" speed="13.89" length="706.59" width="2.00" shape="95.27,337.04 58.19,-368.58"/>
        <lane id="-overlap_1" index="1" disallow="pedestrian" speed="13.89" length="706.59" shape="97.86,336.90 60.79,-368.72"/>
    </edge>
    <edge id="L0" from="J1" to="J5" priority="-1">
        <lane id="L0_0" index="0" allow="pedestrian" speed="13.89" length="911.70" width="2.00" shape="95.85,349.05 -766.97,643.56"/>
        <lane id="L0_1" index="1" disallow="pedestrian" speed="13.89" length="911.70" shape="95.01,346.58 -767.81,641.10"/>
    </edge>
    <edge id="L1" from="J5" to="J7" priority="-1">
        <lane id="L1_0" index="0" allow="pedestrian" speed="13.89" length="973.29" width="2.00" shape="-773.29,643.48 -1685.17,303.23"/>
        <lane id="L1_1" index="1" disallow="pedestrian" speed="13.89" length="973.29" shape="-772.38,641.04 -1684.26,300.80"/>
    </edge>
    <edge id="L2" from="J7" to="J8" priority="-1">
        <lane id="L2_0" index="0" allow="pedestrian" speed="13.89" length="883.13" width="2.00" shape="-1689.14,288.45 -1127.86,-393.37"/>
        <lane id="L2_1" index="1" disallow="pedestrian" speed="13.89" length="883.13" shape="-1687.13,290.10 -1125.85,-391.72"/>
    </edge>
    <edge id="L3" from="J8" to="J4" priority="-1">
        <lane id="L3_0" index="0" allow="pedestrian" speed="13.89" length="1175.78" width="2.00" shape="-1120.47,-396.79 55.19,-380.49"/>
        <lane id="L3_1" index="1" disallow="pedestrian" speed="13.89" length="1175.78" shape="-1120.51,-394.20 55.16,-377.90"/>
    </edge>
    <edge id="R0" from="J1" to="J2" priority="-1">
        <lane id="R0_0" index="0" allow="pedestrian" speed="13.89" length="1039.98" width="2.00" shape="106.38,339.27 1145.82,372.66"/>
        <lane id="R0_1" index="1" disallow="pedestrian" speed="13.89" length="1039.98" shape="106.30,341.87 1145.74,375.26"/>
    </edge>
    <edge id="R1" from="J2" to="J3" priority="-1">
        <lane id="R1_0" index="0" allow="pedestrian" speed="13.89" length="757.70" width="2.00" shape="1146.86,371.63 1121.31,-385.63"/>
        <lane id="R1_1" index="1" disallow="pedestrian" speed="13.89" length="757.70" shape="1149.45,371.54 1123.91,-385.72"/>
    </edge>
    <edge id="R2" from="J3" to="J4" priority="-1">
        <lane id="R2_0" index="0" allow="pedestrian" speed="13.89" length="1050.94" width="2.00" shape="1120.30,-386.60 69.46,-372.10"/>
        <lane id="R2_1" index="1" disallow="pedestrian" speed="13.89" length="1050.94" shape="1120.27,-389.20 69.43,-374.70"/>
    </edge>
    <edge id="overlap" from="J4" to="J1" priority="-1">
        <lane id="overlap_0" index="0" allow="pedestrian" speed="13.89" length="706.59" width="2.00" shape="66.58,-369.03 103.66,336.60"/>
        <lane id="overlap_1" index="1" disallow="pedestrian" speed="13.89" length="706.59" shape="63.99,-368.89 101.06,336.73"/>
    </edge>

    <junction id="J1" type="left_before_right" x="99.80" y="343.26" incLanes="-R0_0 -R0_1 overlap_0 overlap_1 -L0_0 -L0_1 :J1_w2_0" intLanes=":J1_0_0 :J1_1_0 :J1_2_0 :J1_3_0 :J1_4_0 :J1_5_0 :J1_c0_0" shape="106.08,348.66 106.42,338.27 105.48,338.05 105.14,337.81 104.89,337.48 104.73,337.06 104.65,336.54 94.27,337.09 94.17,338.55 93.97,339.11 93.68,339.57 93.30,339.91 92.82,340.15 96.18,349.99 98.20,349.32 99.74,348.89 101.03,348.66 102.34,348.58 103.94,348.60">
        <request index="0" response="0001000" foes="0001000" cont="0"/>
        <request index="1" response="1001000" foes="1111000" cont="0"/>
        <request index="2" response="1100000" foes="1100000" cont="0"/>
        <request index="3" response="1100000" foes="1100011" cont="0"/>
        <request index="4" response="1000010" foes="1000010" cont="0"/>
        <request index="5" response="0000010" foes="0001110" cont="0"/>
        <request index="6" response="0000000" foes="0011110" cont="0"/>
    </junction>
    <junction id="J2" type="priority" x="1151.24" y="377.04" incLanes="-R1_0 -R1_1 R0_0 R0_1" intLanes=":J2_0_0 :J2_1_0" shape="1156.25,371.31 1145.86,371.66 1145.52,382.06 1148.90,381.86 1151.65,381.02 1153.76,379.55 1155.22,377.44 1156.06,374.70">
        <request index="0" response="00" foes="00" cont="0"/>
        <request index="1" response="00" foes="00" cont="0"/>
    </junction>
    <junction id="J3" type="priority" x="1125.34" y="-390.87" incLanes="R1_0 R1_1 -R2_0 -R2_1" intLanes=":J3_0_0 :J3_1_0" shape="1120.31,-385.60 1130.71,-385.95 1130.32,-389.06 1129.39,-391.60 1127.90,-393.56 1125.87,-394.95 1123.30,-395.76 1120.17,-396.00">
        <request index="0" response="00" foes="00" cont="0"/>
        <request index="1" response="00" foes="00" cont="0"/>
    </junction>
    <junction id="J4" type="left_before_right" x="62.00" y="-376.20" incLanes="-overlap_0 -overlap_1 R2_0 R2_1 L3_0 L3_1 :J4_w1_0" intLanes=":J4_0_0 :J4_1_0 :J4_2_0 :J4_3_0 :J4_4_0 :J4_5_0 :J4_c0_0" shape="57.20,-368.53 67.58,-369.08 67.75,-370.19 68.00,-370.58 68.38,-370.87 68.87,-371.04 69.48,-371.10 69.33,-381.50 55.21,-381.49 55.06,-371.10 56.19,-370.80 56.60,-370.44 56.90,-369.94 57.10,-369.31">
        <request index="0" response="1001000" foes="1001000" cont="0"/>
        <request index="1" response="1001000" foes="1111000" cont="0"/>
        <request index="2" response="1100000" foes="1100000" cont="0"/>
        <request index="3" response="0100000" foes="0100011" cont="0"/>
        <request index="4" response="0000010" foes="0000010" cont="0"/>
        <request index="5" response="1000010" foes="1001110" cont="0"/>
        <request index="6" response="0000000" foes="0100111" cont="0"/>
    </junction>
    <junction id="J5" type="priority" x="-770.08" y="640.19" incLanes="L0_0 L0_1 -L1_0 -L1_1" intLanes=":J5_0_0 :J5_1_0" shape="-766.64,644.51 -770.00,634.67 -773.64,644.41 -771.10,645.23 -770.15,645.34 -769.20,645.26 -768.08,644.98">
        <request index="0" response="00" foes="00" cont="0"/>
        <request index="1" response="00" foes="00" cont="0"/>
    </junction>
    <junction id="J7" type="priority" x="-1690.53" y="296.75" incLanes="L1_0 L1_1 -L2_0 -L2_1" intLanes=":J7_0_0 :J7_1_0" shape="-1685.52,304.17 -1681.88,294.43 -1689.91,287.82 -1692.36,291.40 -1693.54,294.64 -1693.45,297.53 -1692.08,300.09 -1689.43,302.30">
        <request index="0" response="00" foes="00" cont="0"/>
        <request index="1" response="00" foes="00" cont="0"/>
    </junction>
    <junction id="J8" type="priority" x="-1123.03" y="-392.63" incLanes="-L3_0 -L3_1 L2_0 L2_1" intLanes=":J8_0_0 :J8_1_0" shape="-1120.60,-387.40 -1120.46,-397.79 -1123.59,-397.40 -1125.00,-396.88 -1126.31,-396.14 -1127.52,-395.18 -1128.63,-394.01">
        <request index="0" response="00" foes="00" cont="0"/>
        <request index="1" response="00" foes="00" cont="0"/>
    </junction>

    <connection from="-L0" to="-overlap" fromLane="1" toLane="1" via=":J1_4_0" dir="r" state="="/>
    <connection from="-L0" to="R0" fromLane="1" toLane="1" via=":J1_5_0" dir="s" state="="/>
    <connection from="-L1" to="-L0" fromLane="1" toLane="1" via=":J5_1_0" dir="s" state="M"/>
    <connection from="-L2" to="-L1" fromLane="1" toLane="1" via=":J7_1_0" dir="r" state="M"/>
    <connection from="-L3" to="-L2" fromLane="1" toLane="1" via=":J8_0_0" dir="r" state="M"/>
    <connection from="-R0" to="L0" fromLane="1" toLane="1" via=":J1_0_0" dir="s" state="="/>
    <connection from="-R0" to="-overlap" fromLane="1" toLane="1" via=":J1_1_0" dir="l" state="="/>
    <connection from="-R1" to="-R0" fromLane="1" toLane="1" via=":J2_0_0" dir="l" state="M"/>
    <connection from="-R2" to="-R1" fromLane="1" toLane="1" via=":J3_1_0" dir="l" state="M"/>
    <connection from="-overlap" to="-L3" fromLane="1" toLane="1" via=":J4_0_0" dir="r" state="="/>
    <connection from="-overlap" to="-R2" fromLane="1" toLane="1" via=":J4_1_0" dir="l" state="="/>
    <connection from="L0" to="L1" fromLane="1" toLane="1" via=":J5_0_0" dir="s" state="M"/>
    <connection from="L1" to="L2" fromLane="1" toLane="1" via=":J7_0_0" dir="l" state="M"/>
    <connection from="L2" to="L3" fromLane="1" toLane="1" via=":J8_1_0" dir="l" state="M"/>
    <connection from="L3" to="-R2" fromLane="1" toLane="1" via=":J4_4_0" dir="s" state="="/>
    <connection from="L3" to="overlap" fromLane="1" toLane="1" via=":J4_5_0" dir="l" state="="/>
    <connection from="R0" to="R1" fromLane="1" toLane="1" via=":J2_1_0" dir="r" state="M"/>
    <connection from="R1" to="R2" fromLane="1" toLane="1" via=":J3_0_0" dir="r" state="M"/>
    <connection from="R2" to="overlap" fromLane="1" toLane="1" via=":J4_2_0" dir="r" state="="/>
    <connection from="R2" to="-L3" fromLane="1" toLane="1" via=":J4_3_0" dir="s" state="="/>
    <connection from="overlap" to="R0" fromLane="1" toLane="1" via=":J1_2_0" dir="r" state="="/>
    <connection from="overlap" to="L0" fromLane="1" toLane="1" via=":J1_3_0" dir="l" state="="/>

    <connection from=":J1_0" to="L0" fromLane="0" toLane="1" dir="s" state="M"/>
    <connection from=":J1_1" to="-overlap" fromLane="0" toLane="1" dir="l" state="M"/>
    <connection from=":J1_2" to="R0" fromLane="0" toLane="1" dir="r" state="M"/>
    <connection from=":J1_3" to="L0" fromLane="0" toLane="1" dir="l" state="M"/>
    <connection from=":J1_4" to="-overlap" fromLane="0" toLane="1" dir="r" state="M"/>
    <connection from=":J1_5" to="R0" fromLane="0" toLane="1" dir="s" state="M"/>
    <connection from=":J2_0" to="-R0" fromLane="0" toLane="1" dir="l" state="M"/>
    <connection from=":J2_1" to="R1" fromLane="0" toLane="1" dir="r" state="M"/>
    <connection from=":J3_0" to="R2" fromLane="0" toLane="1" dir="r" state="M"/>
    <connection from=":J3_1" to="-R1" fromLane="0" toLane="1" dir="l" state="M"/>
    <connection from=":J4_0" to="-L3" fromLane="0" toLane="1" dir="r" state="M"/>
    <connection from=":J4_1" to="-R2" fromLane="0" toLane="1" dir="l" state="M"/>
    <connection from=":J4_2" to="overlap" fromLane="0" toLane="1" dir="r" state="M"/>
    <connection from=":J4_3" to="-L3" fromLane="0" toLane="1" dir="s" state="M"/>
    <connection from=":J4_4" to="-R2" fromLane="0" toLane="1" dir="s" state="M"/>
    <connection from=":J4_5" to="overlap" fromLane="0" toLane="1" dir="l" state="M"/>
    <connection from=":J5_0" to="L1" fromLane="0" toLane="1" dir="s" state="M"/>
    <connection from=":J5_1" to="-L0" fromLane="0" toLane="1" dir="s" state="M"/>
    <connection from=":J7_0" to="L2" fromLane="0" toLane="1" dir="l" state="M"/>
    <connection from=":J7_1" to="-L1" fromLane="0" toLane="1" dir="r" state="M"/>
    <connection from=":J8_0" to="-L2" fromLane="0" toLane="1" dir="r" state="M"/>
    <connection from=":J8_1" to="L3" fromLane="0" toLane="1" dir="l" state="M"/>

    <connection from=":J1_c0" to=":J1_w1" fromLane="0" toLane="0" dir="s" state="M"/>
    <connection from=":J1_w0" to="L0" fromLane="0" toLane="0" dir="s" state="M"/>
    <connection from="-R0" to=":J1_w0" fromLane="0" toLane="0" dir="s" state="M"/>
    <connection from=":J1_w1" to="R0" fromLane="0" toLane="0" dir="s" state="M"/>
    <connection from="overlap" to=":J1_w1" fromLane="0" toLane="0" dir="s" state="M"/>
    <connection from=":J1_w2" to=":J1_c0" fromLane="0" toLane="0" dir="s" state="M"/>
    <connection from=":J1_w2" to="-overlap" fromLane="0" toLane="0" dir="s" state="M"/>
    <connection from="-L0" to=":J1_w2" fromLane="0" toLane="0" dir="s" state="M"/>
    <connection from=":J2_w0" to="-R0" fromLane="0" toLane="0" dir="s" state="M"/>
    <connection from="-R1" to=":J2_w0" fromLane="0" toLane="0" dir="s" state="M"/>
    <connection from=":J2_w1" to="R1" fromLane="0" toLane="0" dir="s" state="M"/>
    <connection from="R0" to=":J2_w1" fromLane="0" toLane="0" dir="s" state="M"/>
    <connection from=":J3_w0" to="R2" fromLane="0" toLane="0" dir="s" state="M"/>
    <connection from="R1" to=":J3_w0" fromLane="0" toLane="0" dir="s" state="M"/>
    <connection from=":J3_w1" to="-R1" fromLane="0" toLane="0" dir="s" state="M"/>
    <connection from="-R2" to=":J3_w1" fromLane="0" toLane="0" dir="s" state="M"/>
    <connection from=":J4_c0" to=":J4_w0" fromLane="0" toLane="0" dir="s" state="M"/>
    <connection from=":J4_w0" to="-L3" fromLane="0" toLane="0" dir="s" state="M"/>
    <connection from="-overlap" to=":J4_w0" fromLane="0" toLane="0" dir="s" state="M"/>
    <connection from=":J4_w1" to=":J4_c0" fromLane="0" toLane="0" dir="s" state="M"/>
    <connection from=":J4_w1" to="overlap" fromLane="0" toLane="0" dir="s" state="M"/>
    <connection from="R2" to=":J4_w1" fromLane="0" toLane="0" dir="s" state="M"/>
    <connection from=":J4_w2" to="-R2" fromLane="0" toLane="0" dir="s" state="M"/>
    <connection from="L3" to=":J4_w2" fromLane="0" toLane="0" dir="s" state="M"/>
    <connection from=":J5_w0" to="L1" fromLane="0" toLane="0" dir="s" state="M"/>
    <connection from="L0" to=":J5_w0" fromLane="0" toLane="0" dir="s" state="M"/>
    <connection from=":J5_w1" to="-L0" fromLane="0" toLane="0" dir="s" state="M"/>
    <connection from="-L1" to=":J5_w1" fromLane="0" toLane="0" dir="s" state="M"/>
    <connection from=":J7_w0" to="L2" fromLane="0" toLane="0" dir="s" state="M"/>
    <connection from="L1" to=":J7_w0" fromLane="0" toLane="0" dir="s" state="M"/>
    <connection from=":J7_w1" to="-L1" fromLane="0" toLane="0" dir="s" state="M"/>
    <connection from="-L2" to=":J7_w1" fromLane="0" toLane="0" dir="s" state="M"/>
    <connection from=":J8_w0" to="-L2" fromLane="0" toLane="0" dir="s" state="M"/>
    <connection from="-L3" to=":J8_w0" fromLane="0" toLane="0" dir="s" state="M"/>
    <connection from=":J8_w1" to="L3" fromLane="0" toLane="0" dir="s" state="M"/>
    <connection from="L2" to=":J8_w1" fromLane="0" toLane="0" dir="s" state="M"/>
</net>
