<?xml version="1.0" encoding="UTF-8"?>

<!-- generated on 2024-03-11 13:42:36 by Eclipse SUMO netedit Version 1.19.0
-->

<routes xmlns:xsi="http://www.w3.org/2001/XMLSchema-instance" xsi:noNamespaceSchemaLocation="http://sumo.dlr.de/xsd/routes_file.xsd">
    <!-- VTypes -->
    <vType id="DEFAULT_VEHTYPE" length="7.00" vClass="bus"/>
    <vType id="minibus" length="7.00" maxSpeed="13.90" desiredMaxSpeed="13.90" vClass="bus"/>
    <!-- Routes -->
    <route id="r_0" edges="-E3 -E2 -E1 -E0 -E3 -E2 -E1 -E0 -E3 -E2 -E1 -E0 -E3" color="yellow"/>
    <route id="r_1" edges="E4 E7 E8 E9 E3 E4" color="blue"/>
    <!-- Vehicles, persons and containers (sorted by depart) -->
    <flow id="f_0" type="minibus" begin="0.00" route="r_1" end="3600.00" vehsPerHour="100"/>
    <flow id="f_1" type="minibus" begin="0.00" route="r_0" end="3600.00" vehsPerHour="100"/>
</routes>
