<?xml version="1.0" encoding="UTF-8"?>

<!-- generated on 2024-03-18 11:32:45 by Eclipse SUMO netedit Version 1.19.0
-->

<routes xmlns:xsi="http://www.w3.org/2001/XMLSchema-instance" xsi:noNamespaceSchemaLocation="http://sumo.dlr.de/xsd/routes_file.xsd">
    <!-- VTypes -->
    <vType id="t_0" vClass="pedestrian" color="green"/>
    <!-- Routes -->
    
    <!-- Vehicles, persons and containers (sorted by depart) -->
    <!-- <person depart="0" id="p12" type="t_0">
        <walk from="-overlap" to="overlap" duration="100"/>

    </person> -->

    

    
    <!-- <flow id="f_0" type="minibus" begin="0.00" route="r_1" end="3600.00" vehsPerHour="50"/>
    <flow id="f_1" type="minibus" begin="0.00" route="r_0" end="3600.00" vehsPerHour="50"/> -->
</routes>
