<routes xmlns:xsi="http://www.w3.org/2001/XMLSchema-instance" xsi:noNamespaceSchemaLocation="http://sumo.dlr.de/xsd/routes_file.xsd">
    <personFlow id="person_from_-overlap_to_-L3" begin="0.00" end="86400" probability="0.01" departPos="123">
        <walk from="-overlap" to="-overlap" busStop="bs_road_-overlap" />
        <ride from="-overlap" to="-L3" />
    </personFlow>
    <personFlow id="person_from_-overlap_to_-L2" begin="0.00" end="86400" probability="0.01" departPos="123">
        <walk from="-overlap" to="-overlap" busStop="bs_road_-overlap" />
        <ride from="-overlap" to="-L2" />
    </personFlow>
    <personFlow id="person_from_-overlap_to_-L1" begin="0.00" end="86400" probability="0.01" departPos="123">
        <walk from="-overlap" to="-overlap" busStop="bs_road_-overlap" />
        <ride from="-overlap" to="-L1" />
    </personFlow>
    <personFlow id="person_from_-overlap_to_-L0" begin="0.00" end="86400" probability="0.01" departPos="123">
        <walk from="-overlap" to="-overlap" busStop="bs_road_-overlap" />
        <ride from="-overlap" to="-L0" />
    </personFlow>
    <personFlow id="person_from_-L3_to_-overlap" begin="0.00" end="86400" probability="0.01" departPos="117">
        <walk from="-L3" to="-L3" busStop="bs_road_-L3" />
        <ride from="-L3" to="-overlap" />
    </personFlow>
    <personFlow id="person_from_-L3_to_-L2" begin="0.00" end="86400" probability="0.01" departPos="117">
        <walk from="-L3" to="-L3" busStop="bs_road_-L3" />
        <ride from="-L3" to="-L2" />
    </personFlow>
    <personFlow id="person_from_-L3_to_-L1" begin="0.00" end="86400" probability="0.01" departPos="117">
        <walk from="-L3" to="-L3" busStop="bs_road_-L3" />
        <ride from="-L3" to="-L1" />
    </personFlow>
    <personFlow id="person_from_-L3_to_-L0" begin="0.00" end="86400" probability="0.01" departPos="117">
        <walk from="-L3" to="-L3" busStop="bs_road_-L3" />
        <ride from="-L3" to="-L0" />
    </personFlow>
    <personFlow id="person_from_-L2_to_-overlap" begin="0.00" end="86400" probability="0.01" departPos="110">
        <walk from="-L2" to="-L2" busStop="bs_road_-L2" />
        <ride from="-L2" to="-overlap" />
    </personFlow>
    <personFlow id="person_from_-L2_to_-L3" begin="0.00" end="86400" probability="0.01" departPos="110">
        <walk from="-L2" to="-L2" busStop="bs_road_-L2" />
        <ride from="-L2" to="-L3" />
    </personFlow>
    <personFlow id="person_from_-L2_to_-L1" begin="0.00" end="86400" probability="0.01" departPos="110">
        <walk from="-L2" to="-L2" busStop="bs_road_-L2" />
        <ride from="-L2" to="-L1" />
    </personFlow>
    <personFlow id="person_from_-L2_to_-L0" begin="0.00" end="86400" probability="0.01" departPos="110">
        <walk from="-L2" to="-L2" busStop="bs_road_-L2" />
        <ride from="-L2" to="-L0" />
    </personFlow>
    <personFlow id="person_from_-L1_to_-overlap" begin="0.00" end="86400" probability="0.01" departPos="123">
        <walk from="-L1" to="-L1" busStop="bs_road_-L1" />
        <ride from="-L1" to="-overlap" />
    </personFlow>
    <personFlow id="person_from_-L1_to_-L3" begin="0.00" end="86400" probability="0.01" departPos="123">
        <walk from="-L1" to="-L1" busStop="bs_road_-L1" />
        <ride from="-L1" to="-L3" />
    </personFlow>
    <personFlow id="person_from_-L1_to_-L2" begin="0.00" end="86400" probability="0.01" departPos="123">
        <walk from="-L1" to="-L1" busStop="bs_road_-L1" />
        <ride from="-L1" to="-L2" />
    </personFlow>
    <personFlow id="person_from_-L1_to_-L0" begin="0.00" end="86400" probability="0.01" departPos="123">
        <walk from="-L1" to="-L1" busStop="bs_road_-L1" />
        <ride from="-L1" to="-L0" />
    </personFlow>
    <personFlow id="person_from_-L0_to_-overlap" begin="0.00" end="86400" probability="0.01" departPos="120">
        <walk from="-L0" to="-L0" busStop="bs_road_-L0" />
        <ride from="-L0" to="-overlap" />
    </personFlow>
    <personFlow id="person_from_-L0_to_-L3" begin="0.00" end="86400" probability="0.01" departPos="120">
        <walk from="-L0" to="-L0" busStop="bs_road_-L0" />
        <ride from="-L0" to="-L3" />
    </personFlow>
    <personFlow id="person_from_-L0_to_-L2" begin="0.00" end="86400" probability="0.01" departPos="120">
        <walk from="-L0" to="-L0" busStop="bs_road_-L0" />
        <ride from="-L0" to="-L2" />
    </personFlow>
    <personFlow id="person_from_-L0_to_-L1" begin="0.00" end="86400" probability="0.01" departPos="120">
        <walk from="-L0" to="-L0" busStop="bs_road_-L0" />
        <ride from="-L0" to="-L1" />
    </personFlow>
    <personFlow id="person_from_-overlap_to_-R2" begin="0.00" end="86400" probability="0.01" departPos="123">
        <walk from="-overlap" to="-overlap" busStop="bs_road_-overlap" />
        <ride from="-overlap" to="-R2" />
    </personFlow>
    <personFlow id="person_from_-overlap_to_-R1" begin="0.00" end="86400" probability="0.01" departPos="123">
        <walk from="-overlap" to="-overlap" busStop="bs_road_-overlap" />
        <ride from="-overlap" to="-R1" />
    </personFlow>
    <personFlow id="person_from_-overlap_to_-R0" begin="0.00" end="86400" probability="0.01" departPos="123">
        <walk from="-overlap" to="-overlap" busStop="bs_road_-overlap" />
        <ride from="-overlap" to="-R0" />
    </personFlow>
    <personFlow id="person_from_-R2_to_-overlap" begin="0.00" end="86400" probability="0.01" departPos="259">
        <walk from="-R2" to="-R2" busStop="bs_road_-R2" />
        <ride from="-R2" to="-overlap" />
    </personFlow>
    <personFlow id="person_from_-R2_to_-R1" begin="0.00" end="86400" probability="0.01" departPos="259">
        <walk from="-R2" to="-R2" busStop="bs_road_-R2" />
        <ride from="-R2" to="-R1" />
    </personFlow>
    <personFlow id="person_from_-R2_to_-R0" begin="0.00" end="86400" probability="0.01" departPos="259">
        <walk from="-R2" to="-R2" busStop="bs_road_-R2" />
        <ride from="-R2" to="-R0" />
    </personFlow>
    <personFlow id="person_from_-R1_to_-overlap" begin="0.00" end="86400" probability="0.01" departPos="125">
        <walk from="-R1" to="-R1" busStop="bs_road_-R1" />
        <ride from="-R1" to="-overlap" />
    </personFlow>
    <personFlow id="person_from_-R1_to_-R2" begin="0.00" end="86400" probability="0.01" departPos="125">
        <walk from="-R1" to="-R1" busStop="bs_road_-R1" />
        <ride from="-R1" to="-R2" />
    </personFlow>
    <personFlow id="person_from_-R1_to_-R0" begin="0.00" end="86400" probability="0.01" departPos="125">
        <walk from="-R1" to="-R1" busStop="bs_road_-R1" />
        <ride from="-R1" to="-R0" />
    </personFlow>
    <personFlow id="person_from_-R0_to_-overlap" begin="0.00" end="86400" probability="0.01" departPos="267">
        <walk from="-R0" to="-R0" busStop="bs_road_-R0" />
        <ride from="-R0" to="-overlap" />
    </personFlow>
    <personFlow id="person_from_-R0_to_-R2" begin="0.00" end="86400" probability="0.01" departPos="267">
        <walk from="-R0" to="-R0" busStop="bs_road_-R0" />
        <ride from="-R0" to="-R2" />
    </personFlow>
    <personFlow id="person_from_-R0_to_-R1" begin="0.00" end="86400" probability="0.01" departPos="267">
        <walk from="-R0" to="-R0" busStop="bs_road_-R0" />
        <ride from="-R0" to="-R1" />
    </personFlow>
</routes>